24
Properties=species:S:1:pos:R:3 pbc="F F F" smiles="Cn1c(=O)c2c(ncn2C)n(C)c1=O"
C        3.30890361       0.43005813       0.04227097
N        2.11432024      -0.40580570       0.10447606
C        2.06479468      -1.74481035       0.31114921
C        0.79811027      -2.23557804       0.33450477
C        0.04645256      -1.13495493       0.12895884
O        0.82679173      -0.03870264      -0.00629202
N        0.25631952       1.21251737      -0.19974421
C        0.98311401       2.23838980      -0.30508390
C       -1.11608126       1.29935176      -0.26307490
O       -1.89498139       0.16613230      -0.09179611
N       -3.15475497       0.26614059      -0.08438342
C       -1.31180165      -1.07148342       0.07857807
N       -2.12829351      -2.27511109       0.28436606
C       -1.75995988       2.61304076      -0.42980014
H        3.34723698       0.95729122      -0.93395968
H        4.22358097      -0.19166466       0.14600198
H        3.28833163       1.17419493       0.86585280
H        2.94172588      -2.36422669       0.44903636
H       -1.56664220      -3.19514615       0.01554500
H       -2.43673022      -2.33757237       1.34911375
H       -3.03404816      -2.24871102      -0.35846229
H       -1.96691573       3.05513010       0.56744574
H       -1.11701383       3.30869762      -1.01019494
H       -2.71245931       2.52282248      -0.99450799
